Circuit: * Z:\home\chris\Code\MotorcycleBatteryIsolator\Draft3.asc

WARNING: Node N002 is floating.

.OP point found by inspection.

Date: Sun Feb 13 20:03:29 2022
Total elapsed time: 0.077 seconds.

tnom = 27
temp = 27
method = modified trap
totiter = 2368
traniter = 2368
tranpoints = 1155
accept = 1126
rejected = 29
matrix size = 10
fillins = 0
solver = Normal
Matrix Compiler1:      19 opcodes  3.4/[3.5]/3.9
Matrix Compiler2: off  [3.3]/3.5/3.9

