Circuit: * Z:\home\chris\Code\MotorcycleBatteryIsolator\Draft1.asc

C2: Increased Cpar to 2.2e-011
WARNING: Node N004 is floating.

Direct Newton iteration for .op point succeeded.

Date: Sun Feb 13 01:34:17 2022
Total elapsed time: 0.241 seconds.

tnom = 27
temp = 27
method = modified trap
totiter = 4036
traniter = 4002
tranpoints = 1321
accept = 1240
rejected = 81
matrix size = 31
fillins = 33
solver = Normal
Matrix Compiler1: 3.89 KB object code size  4.0/3.5/[3.5]
Matrix Compiler2: off  [3.4]/3.6/3.6

